#-----------------------------------------------------------------------------
[Config Wireless01]
description = Two hosts communicating wirelessly
network = WirelessA
sim-time-limit = 20s

*.hostD.messageDelay = 3s
*.hostD.repeatPublications = true
*.hostD.icnPublicationName = "/example/testData"
*.hostD.publicationSize = 1000B

*.hostA.id = "AP1"

*.hostC.subscribeTo = "/example/testData"

*.hostB.subscribeTo = "/example/betterTestData"

## mobility
#*.hostC.mobility.typename = "LinearMobility"
#*.hostC.mobility.speed = 10mps
#*.hostC.mobility.initialMovementHeading = 180deg
#
#*.hostB.mobility.typename = "LinearMobility"
#*.hostB.mobility.speed = 10mps
#*.hostB.mobility.initialMovementHeading = 180deg

*.visualizer.interfaceTableVisualizer.displayInterfaceTables = true
*.visualizer.interfaceTableVisualizer.nodeFilter = "not (*switch* or *Switch* or *AP*)"

